[OPTIONS]
FLOW_UNITS  CFS
INFILTRATION  GREEN_AMPT
FLOW_ROUTING  KINWAVE
REPORT_STEP  0:15:00
WET_STEP  0:05:00
DRY_STEP  1:00:00
ROUTING_STEP  60
START_TIME  0:00:00
END_TIME  23:59:59
START_DATE  01/01/2003
END_DATE  12/31/2006

[EVAPORATION]
MONTHLY  0.23  0.25  0.15  0.17  0.35  0.24  0.23  0.2  0.21  0.23  0.05  0.24  
DRY_ONLY  YES

[RAINGAGES]
RainGage2  INTENSITY  1:00  1.0  TIMESERIES  TS1

[SUBCATCHMENTS]
Subcatch1  RainGage1  Outfall1  10.00  80.0  2904.0  2  0
Subcatch2  RainGage2  Outfall1  0  100  0  0  0
Subcatch3  RainGage2  Outfall1  0  100  0  0  0
Subcatch4  RainGage2  Outfall1  0  100  0  0  0

[SUBAREAS]
Subcatch1  0.01  0.30  0.05  0.20  0  OUTLET
Subcatch2  0  0  0  0  0  OUTLET
Subcatch3  0  0  0  0  0  OUTLET
Subcatch4  0  0  0  0  0  OUTLET

[INFILTRATION]
Subcatch1  8.7  0.011  0.15
Subcatch2  8.7  0.011  0.15
Subcatch3  8.7  0.011  0.15
Subcatch4  8.7  0.011  0.15

[LID_CONTROLS]
RainGarden  BC
RainGarden  SURFACE  6  0  0  0  0
RainGarden  SOIL  12  0.450  0.1  0.05  10  10  1.6
RainGarden  STORAGE  0  0  0.0110  0
 
GreenRoof  BC
GreenRoof  SURFACE  0  0  0  0  0
GreenRoof  SOIL  4  0.450  0.1  0.05  10  10  1.6
GreenRoof  STORAGE  3  0.75  0  0
GreenRoof  DRAIN  10  0.5  0  0
 
StreetPlanter  BC
StreetPlanter  SURFACE  6  0  0  0  0
StreetPlanter  SOIL  18  0.450  0.1  0.05  10  10  1.6
StreetPlanter  STORAGE  12 0.750  0.0110  0
 
PorousPavement  PP
PorousPavement  SURFACE  0.05  0  0.01  3  0
PorousPavement  PAVEMENT  6 0.120  0  400  0
PorousPavement  STORAGE  18  0.750  0.0110  0
 

[LID_USAGE]
 

[OUTFALLS]
Outfall1  0.0  FREE

[JUNCTIONS]
Cisterns  0

[TIMESERIES]
TS1  0  0

[REPORT]
SUBCATCHMENTS  NONE
NODES ALL
LINKS NONE

 
[RAINGAGES]
RainGage1  CUMULATIVE  0:06  1.0  TIMESERIES  TS24
 
[TIMESERIES]
TS24  00:06  0.0117  00:12  0.0233  00:18  0.0352  00:24  0.0471  00:30  0.0592  00:36  0.0713
TS24  00:42  0.0836  00:48  0.0960  00:54  0.1085  01:00  0.1211  01:06  0.1339  01:12  0.1467
TS24  01:18  0.1598  01:24  0.1728  01:30  0.1861  01:36  0.1993  01:42  0.2128  01:48  0.2263
TS24  01:54  0.2401  02:00  0.2538  02:06  0.2677  02:12  0.2817  02:18  0.2959  02:24  0.3101
TS24  02:30  0.3245  02:36  0.3389  02:42  0.3536  02:48  0.3682  02:54  0.3831  03:00  0.3980
TS24  03:06  0.4131  03:12  0.4282  03:18  0.4435  03:24  0.4589  03:30  0.4745  03:36  0.4900
TS24  03:42  0.5058  03:48  0.5216  03:54  0.5377  04:00  0.5537  04:06  0.5700  04:12  0.5865
TS24  04:18  0.6032  04:24  0.6201  04:30  0.6373  04:36  0.6548  04:42  0.6724  04:48  0.6903
TS24  04:54  0.7084  05:00  0.7267  05:06  0.7453  05:12  0.7641  05:18  0.7831  05:24  0.8024
TS24  05:30  0.8219  05:36  0.8416  05:42  0.8616  05:48  0.8818  05:54  0.9022  06:00  0.9228
TS24  06:06  0.9437  06:12  0.9648  06:18  0.9862  06:24  1.0077  06:30  1.0295  06:36  1.0516
TS24  06:42  1.0738  06:48  1.0963  06:54  1.1191  07:00  1.1420  07:06  1.1652  07:12  1.1886
TS24  07:18  1.2123  07:24  1.2361  07:30  1.2602  07:36  1.2846  07:42  1.3092  07:48  1.3340
TS24  07:54  1.3590  08:00  1.3843  08:06  1.4102  08:12  1.4373  08:18  1.4656  08:24  1.4950
TS24  08:30  1.5256  08:36  1.5573  08:42  1.5902  08:48  1.6242  08:54  1.6594  09:00  1.6957
TS24  09:06  1.7326  09:12  1.7695  09:18  1.8064  09:24  1.8434  09:30  1.8803  09:36  1.9181
TS24  09:42  1.9578  09:48  1.9993  09:54  2.0427  10:00  2.0879  10:06  2.1354  10:12  2.1857
TS24  10:18  2.2388  10:24  2.2946  10:30  2.3532  10:36  2.4155  10:42  2.4824  10:48  2.5539
TS24  10:54  2.6301  11:00  2.7108  11:06  2.7994  11:12  2.8991  11:18  3.0098  11:24  3.1316
TS24  11:30  3.2645  11:36  3.5395  11:42  4.0877  11:48  4.9693  11:54  6.5505  12:00  7.6480
TS24  12:06  7.8667  12:12  8.0591  12:18  8.2252  12:24  8.3650  12:30  8.4785  12:36  8.5759
TS24  12:42  8.6673  12:48  8.7526  12:54  8.8320  13:00  8.9054  13:06  8.9741  13:12  9.0396
TS24  13:18  9.1019  13:24  9.1610  13:30  9.2168  13:36  9.2699  13:42  9.3206  13:48  9.3691
TS24  13:54  9.4152  14:00  9.4591  14:06  9.5014  14:12  9.5428  14:18  9.5835  14:24  9.6233
TS24  14:30  9.6624  14:36  9.7006  14:42  9.7381  14:48  9.7747  14:54  9.8105  15:00  9.8455
TS24  15:06  9.8798  15:12  9.9131  15:18  9.9457  15:24  9.9775  15:30  10.0085  15:36  10.0386
TS24  15:42  10.0680  15:48  10.0965  15:54  10.1243  16:00  10.1512  16:06  10.1776  16:12  10.2037
TS24  16:18  10.2295  16:24  10.2550  16:30  10.2803  16:36  10.3052  16:42  10.3299  16:48  10.3542
TS24  16:54  10.3783  17:00  10.4021  17:06  10.4256  17:12  10.4488  17:18  10.4718  17:24  10.4944
TS24  17:30  10.5167  17:36  10.5388  17:42  10.5606  17:48  10.5820  17:54  10.6033  18:00  10.6241
TS24  18:06  10.6448  18:12  10.6651  18:18  10.6852  18:24  10.7049  18:30  10.7244  18:36  10.7435
TS24  18:42  10.7624  18:48  10.7810  18:54  10.7994  19:00  10.8174  19:06  10.8351  19:12  10.8525
TS24  19:18  10.8697  19:24  10.8866  19:30  10.9032  19:36  10.9194  19:42  10.9355  19:48  10.9512
TS24  19:54  10.9666  20:00  10.9817  20:06  10.9967  20:12  11.0116  20:18  11.0265  20:24  11.0413
TS24  20:30  11.0560  20:36  11.0707  20:42  11.0853  20:48  11.0999  20:54  11.1144  21:00  11.1288
TS24  21:06  11.1432  21:12  11.1575  21:18  11.1718  21:24  11.1860  21:30  11.2002  21:36  11.2143
TS24  21:42  11.2284  21:48  11.2423  21:54  11.2563  22:00  11.2701  22:06  11.2840  22:12  11.2977
TS24  22:18  11.3114  22:24  11.3250  22:30  11.3386  22:36  11.3521  22:42  11.3656  22:48  11.3790
TS24  22:54  11.3924  23:00  11.4057  23:06  11.4189  23:12  11.4321  23:18  11.4452  23:24  11.4583
TS24  23:30  11.4713  23:36  11.4842  23:42  11.4971  23:48  11.5099  23:54  11.5227  24:00  11.5354

 
[OPTIONS]
WET_STEP  0:06:00
DRY_STEP  0:06:00
START_DATE  06/01/2006
END_DATE    06/03/2006
