[OPTIONS]
FLOW_UNITS  CFS
INFILTRATION  GREEN_AMPT
FLOW_ROUTING  KINWAVE
REPORT_STEP  0:15:00
WET_STEP  0:05:00
DRY_STEP  1:00:00
ROUTING_STEP  60
START_TIME  0:00:00
END_TIME  23:59:59
START_DATE  01/01/2003
END_DATE  12/31/2006

[EVAPORATION]
MONTHLY  0.232  0.257  0.159  0.178  0.362  0.247  0.244  0.21  0.223  0.228  0.054  0.254  
DRY_ONLY  YES

[RAINGAGES]
RainGage2  INTENSITY  1:00  1.0  TIMESERIES  TS1

[SUBCATCHMENTS]
Subcatch1  RainGage1  Outfall1  10.00  80.0  2904.0  2  0
Subcatch2  RainGage2  Outfall1  0  100  0  0  0
Subcatch3  RainGage2  Outfall1  0  100  0  0  0
Subcatch4  RainGage2  Outfall1  0  100  0  0  0

[SUBAREAS]
Subcatch1  0.01  0.30  0.05  0.20  0  OUTLET
Subcatch2  0  0  0  0  0  OUTLET
Subcatch3  0  0  0  0  0  OUTLET
Subcatch4  0  0  0  0  0  OUTLET

[INFILTRATION]
Subcatch1  8.7  0.011  0.15
Subcatch2  8.7  0.011  0.15
Subcatch3  8.7  0.011  0.15
Subcatch4  8.7  0.011  0.15

[LID_CONTROLS]
RainGarden  BC
RainGarden  SURFACE  6  0  0  0  0
RainGarden  SOIL  12  0.450  0.1  0.05  10  10  1.6
RainGarden  STORAGE  0  0  0.0110  0
 
GreenRoof  BC
GreenRoof  SURFACE  0  0  0  0  0
GreenRoof  SOIL  4  0.450  0.1  0.05  10  10  1.6
GreenRoof  STORAGE  3  0.75  0  0
GreenRoof  DRAIN  10  0.5  0  0
 
StreetPlanter  BC
StreetPlanter  SURFACE  6  0  0  0  0
StreetPlanter  SOIL  18  0.450  0.1  0.05  10  10  1.6
StreetPlanter  STORAGE  12 0.750  0.0110  0
 
PorousPavement  PP
PorousPavement  SURFACE  0.05  0  0.01  3  0
PorousPavement  PAVEMENT  6 0.120  0  400  0
PorousPavement  STORAGE  18  0.750  0.0110  0
 

[LID_USAGE]
 

[OUTFALLS]
Outfall1  0.0  FREE

[JUNCTIONS]
Cisterns  0

[TIMESERIES]
TS1  0  0

[REPORT]
SUBCATCHMENTS  NONE
NODES ALL
LINKS NONE

 
[RAINGAGES]
RainGage1  CUMULATIVE  0:06  1.0  TIMESERIES  TS24
 
[TIMESERIES]
TS24  00:06  0.0136  00:12  0.0272  00:18  0.0411  00:24  0.0550  00:30  0.0692  00:36  0.0833
TS24  00:42  0.0978  00:48  0.1122  00:54  0.1269  01:00  0.1416  01:06  0.1566  01:12  0.1716
TS24  01:18  0.1868  01:24  0.2020  01:30  0.2175  01:36  0.2331  01:42  0.2488  01:48  0.2646
TS24  01:54  0.2807  02:00  0.2967  02:06  0.3130  02:12  0.3294  02:18  0.3459  02:24  0.3625
TS24  02:30  0.3794  02:36  0.3962  02:42  0.4134  02:48  0.4305  02:54  0.4479  03:00  0.4653
TS24  03:06  0.4830  03:12  0.5006  03:18  0.5186  03:24  0.5365  03:30  0.5547  03:36  0.5729
TS24  03:42  0.5914  03:48  0.6099  03:54  0.6286  04:00  0.6474  04:06  0.6664  04:12  0.6857
TS24  04:18  0.7052  04:24  0.7251  04:30  0.7452  04:36  0.7655  04:42  0.7862  04:48  0.8071
TS24  04:54  0.8282  05:00  0.8497  05:06  0.8714  05:12  0.8934  05:18  0.9156  05:24  0.9382
TS24  05:30  0.9609  05:36  0.9840  05:42  1.0073  05:48  1.0309  05:54  1.0548  06:00  1.0790
TS24  06:06  1.1034  06:12  1.1281  06:18  1.1530  06:24  1.1782  06:30  1.2037  06:36  1.2295
TS24  06:42  1.2555  06:48  1.2818  06:54  1.3084  07:00  1.3352  07:06  1.3623  07:12  1.3897
TS24  07:18  1.4173  07:24  1.4453  07:30  1.4735  07:36  1.5019  07:42  1.5306  07:48  1.5596
TS24  07:54  1.5889  08:00  1.6184  08:06  1.6488  08:12  1.6805  08:18  1.7135  08:24  1.7479
TS24  08:30  1.7837  08:36  1.8207  08:42  1.8592  08:48  1.8990  08:54  1.9401  09:00  1.9826
TS24  09:06  2.0257  09:12  2.0689  09:18  2.1121  09:24  2.1552  09:30  2.1984  09:36  2.2426
TS24  09:42  2.2890  09:48  2.3376  09:54  2.3883  10:00  2.4411  10:06  2.4967  10:12  2.5555
TS24  10:18  2.6176  10:24  2.6828  10:30  2.7513  10:36  2.8242  10:42  2.9024  10:48  2.9860
TS24  10:54  3.0750  11:00  3.1694  11:06  3.2730  11:12  3.3896  11:18  3.5190  11:24  3.6615
TS24  11:30  3.8168  11:36  4.1384  11:42  4.7793  11:48  5.8101  11:54  7.6587  12:00  8.9419
TS24  12:06  9.1976  12:12  9.4226  12:18  9.6168  12:24  9.7802  12:30  9.9130  12:36  10.0268
TS24  12:42  10.1336  12:48  10.2334  12:54  10.3262  13:00  10.4120  13:06  10.4924  13:12  10.5690
TS24  13:18  10.6418  13:24  10.7108  13:30  10.7761  13:36  10.8382  13:42  10.8975  13:48  10.9541
TS24  13:54  11.0081  14:00  11.0593  14:06  11.1088  14:12  11.1573  14:18  11.2049  14:24  11.2514
TS24  14:30  11.2971  14:36  11.3418  14:42  11.3856  14:48  11.4284  14:54  11.4703  15:00  11.5112
TS24  15:06  11.5512  15:12  11.5902  15:18  11.6284  15:24  11.6655  15:30  11.7017  15:36  11.7369
TS24  15:42  11.7713  15:48  11.8046  15:54  11.8371  16:00  11.8686  16:06  11.8995  16:12  11.9299
TS24  16:18  11.9601  16:24  11.9900  16:30  12.0195  16:36  12.0486  16:42  12.0775  16:48  12.1059
TS24  16:54  12.1341  17:00  12.1619  17:06  12.1894  17:12  12.2165  17:18  12.2434  17:24  12.2698
TS24  17:30  12.2960  17:36  12.3217  17:42  12.3472  17:48  12.3723  17:54  12.3971  18:00  12.4215
TS24  18:06  12.4457  18:12  12.4694  18:18  12.4929  18:24  12.5159  18:30  12.5387  18:36  12.5611
TS24  18:42  12.5832  18:48  12.6050  18:54  12.6264  19:00  12.6474  19:06  12.6682  19:12  12.6886
TS24  19:18  12.7087  19:24  12.7284  19:30  12.7478  19:36  12.7668  19:42  12.7855  19:48  12.8039
TS24  19:54  12.8220  20:00  12.8396  20:06  12.8572  20:12  12.8746  20:18  12.8920  20:24  12.9092
TS24  20:30  12.9265  20:36  12.9436  20:42  12.9607  20:48  12.9777  20:54  12.9947  21:00  13.0116
TS24  21:06  13.0284  21:12  13.0452  21:18  13.0619  21:24  13.0785  21:30  13.0951  21:36  13.1115
TS24  21:42  13.1280  21:48  13.1443  21:54  13.1606  22:00  13.1768  22:06  13.1930  22:12  13.2090
TS24  22:18  13.2251  22:24  13.2410  22:30  13.2569  22:36  13.2727  22:42  13.2885  22:48  13.3041
TS24  22:54  13.3198  23:00  13.3353  23:06  13.3508  23:12  13.3662  23:18  13.3815  23:24  13.3968
TS24  23:30  13.4120  23:36  13.4271  23:42  13.4422  23:48  13.4572  23:54  13.4722  24:00  13.4870

 
[OPTIONS]
WET_STEP  0:06:00
DRY_STEP  0:06:00
START_DATE  06/01/2006
END_DATE    06/03/2006
