[OPTIONS]
FLOW_UNITS  CFS
INFILTRATION  GREEN_AMPT
FLOW_ROUTING  KINWAVE
REPORT_STEP  0:15:00
WET_STEP  0:05:00
DRY_STEP  1:00:00
ROUTING_STEP  60
START_TIME  0:00:00
END_TIME  23:59:59
START_DATE  01/01/1987
END_DATE  12/31/2006

[EVAPORATION]
MONTHLY  0.05  0.06  0.12  0.15  0.21  0.24  0.31  0.27  0.19  0.09  0.04  0.03  
DRY_ONLY  YES

[RAINGAGES]
RainGage2  INTENSITY  1:00  1.0  TIMESERIES  TS1

[SUBCATCHMENTS]
Subcatch1  RainGage1  Outfall1  10.00  90.0  2904.0  2  0
Subcatch2  RainGage2  Outfall1  0  100  0  0  0
Subcatch3  RainGage2  Outfall1  0  100  0  0  0
Subcatch4  RainGage2  Outfall1  0  100  0  0  0

[SUBAREAS]
Subcatch1  0.01  0.30  0.05  0.20  0  OUTLET
Subcatch2  0  0  0  0  0  OUTLET
Subcatch3  0  0  0  0  0  OUTLET
Subcatch4  0  0  0  0  0  OUTLET

[INFILTRATION]
Subcatch1  8.7  0.108  0.15
Subcatch2  8.7  0.108  0.15
Subcatch3  8.7  0.108  0.15
Subcatch4  8.7  0.108  0.15

[LID_CONTROLS]
RainGarden  BC
RainGarden  SURFACE  6  0  0  0  0
RainGarden  SOIL  12  0.450  0.1  0.05  10  10  1.6
RainGarden  STORAGE  0  0  0.1080  0
 
GreenRoof  BC
GreenRoof  SURFACE  0  0  0  0  0
GreenRoof  SOIL  4  0.450  0.1  0.05  10  10  1.6
GreenRoof  STORAGE  3  0.75  0  0
GreenRoof  DRAIN  10  0.5  0  0
 
StreetPlanter  BC
StreetPlanter  SURFACE  6  0  0  0  0
StreetPlanter  SOIL  18  0.450  0.1  0.05  10  10  1.6
StreetPlanter  STORAGE  12 0.750  0.1080  0
 
PorousPavement  PP
PorousPavement  SURFACE  0.05  0  0.01  3  0
PorousPavement  PAVEMENT  6 0.120  0  400  0
PorousPavement  STORAGE  18  0.750  0.1080  0
 

[LID_USAGE]
 

[OUTFALLS]
Outfall1  0.0  FREE

[JUNCTIONS]
Cisterns  0

[TIMESERIES]
TS1  0  0

[REPORT]
SUBCATCHMENTS  NONE
NODES ALL
LINKS NONE

 
[RAINGAGES]
RainGage1  CUMULATIVE  0:06  1.0  TIMESERIES  TS24
 
[TIMESERIES]
TS24  00:06  0.0051  00:12  0.0101  00:18  0.0152  00:24  0.0203  00:30  0.0254  00:36  0.0305
TS24  00:42  0.0355  00:48  0.0406  00:54  0.0457  01:00  0.0508  01:06  0.0559  01:12  0.0610
TS24  01:18  0.0661  01:24  0.0713  01:30  0.0764  01:36  0.0815  01:42  0.0866  01:48  0.0917
TS24  01:54  0.0968  02:00  0.1020  02:06  0.1071  02:12  0.1124  02:18  0.1177  02:24  0.1231
TS24  02:30  0.1287  02:36  0.1342  02:42  0.1399  02:48  0.1457  02:54  0.1515  03:00  0.1575
TS24  03:06  0.1635  03:12  0.1696  03:18  0.1758  03:24  0.1820  03:30  0.1884  03:36  0.1948
TS24  03:42  0.2013  03:48  0.2080  03:54  0.2146  04:00  0.2214  04:06  0.2283  04:12  0.2351
TS24  04:18  0.2420  04:24  0.2489  04:30  0.2559  04:36  0.2629  04:42  0.2699  04:48  0.2770
TS24  04:54  0.2841  05:00  0.2912  05:06  0.2984  05:12  0.3055  05:18  0.3128  05:24  0.3200
TS24  05:30  0.3273  05:36  0.3346  05:42  0.3419  05:48  0.3493  05:54  0.3567  06:00  0.3642
TS24  06:06  0.3718  06:12  0.3797  06:18  0.3880  06:24  0.3965  06:30  0.4054  06:36  0.4146
TS24  06:42  0.4241  06:48  0.4339  06:54  0.4440  07:00  0.4545  07:06  0.4652  07:12  0.4759
TS24  07:18  0.4867  07:24  0.4977  07:30  0.5087  07:36  0.5198  07:42  0.5310  07:48  0.5423
TS24  07:54  0.5537  08:00  0.5652  08:06  0.5773  08:12  0.5907  08:18  0.6053  08:24  0.6210
TS24  08:30  0.6380  08:36  0.6562  08:42  0.6755  08:48  0.6959  08:54  0.7174  09:00  0.7400
TS24  09:06  0.7643  09:12  0.7907  09:18  0.8192  09:24  0.8499  09:30  0.8828  09:36  0.9306
TS24  09:42  1.0063  09:48  1.1299  09:54  1.3494  10:00  1.5004  10:06  1.5505  10:12  1.5954
TS24  10:18  1.6350  10:24  1.6694  10:30  1.6985  10:36  1.7244  10:42  1.7490  10:48  1.7723
TS24  10:54  1.7943  11:00  1.8150  11:06  1.8349  11:12  1.8543  11:18  1.8732  11:24  1.8917
TS24  11:30  1.9097  11:36  1.9273  11:42  1.9443  11:48  1.9609  11:54  1.9771  12:00  1.9928
TS24  12:06  2.0081  12:12  2.0231  12:18  2.0378  12:24  2.0522  12:30  2.0663  12:36  2.0802
TS24  12:42  2.0937  12:48  2.1070  12:54  2.1199  13:00  2.1326  13:06  2.1450  13:12  2.1571
TS24  13:18  2.1689  13:24  2.1804  13:30  2.1916  13:36  2.2025  13:42  2.2132  13:48  2.2235
TS24  13:54  2.2335  14:00  2.2433  14:06  2.2529  14:12  2.2624  14:18  2.2719  14:24  2.2813
TS24  14:30  2.2906  14:36  2.2999  14:42  2.3092  14:48  2.3184  14:54  2.3275  15:00  2.3365
TS24  15:06  2.3455  15:12  2.3545  15:18  2.3634  15:24  2.3722  15:30  2.3810  15:36  2.3897
TS24  15:42  2.3983  15:48  2.4069  15:54  2.4155  16:00  2.4239  16:06  2.4324  16:12  2.4407
TS24  16:18  2.4490  16:24  2.4573  16:30  2.4655  16:36  2.4736  16:42  2.4817  16:48  2.4897
TS24  16:54  2.4976  17:00  2.5055  17:06  2.5133  17:12  2.5211  17:18  2.5288  17:24  2.5365
TS24  17:30  2.5441  17:36  2.5517  17:42  2.5591  17:48  2.5666  17:54  2.5739  18:00  2.5813
TS24  18:06  2.5885  18:12  2.5957  18:18  2.6028  18:24  2.6099  18:30  2.6169  18:36  2.6239
TS24  18:42  2.6308  18:48  2.6377  18:54  2.6445  19:00  2.6512  19:06  2.6579  19:12  2.6645
TS24  19:18  2.6710  19:24  2.6775  19:30  2.6840  19:36  2.6903  19:42  2.6967  19:48  2.7029
TS24  19:54  2.7091  20:00  2.7153  20:06  2.7214  20:12  2.7274  20:18  2.7334  20:24  2.7393
TS24  20:30  2.7451  20:36  2.7509  20:42  2.7567  20:48  2.7624  20:54  2.7680  21:00  2.7735
TS24  21:06  2.7790  21:12  2.7845  21:18  2.7899  21:24  2.7952  21:30  2.8005  21:36  2.8057
TS24  21:42  2.8109  21:48  2.8160  21:54  2.8210  22:00  2.8260  22:06  2.8309  22:12  2.8358
TS24  22:18  2.8406  22:24  2.8453  22:30  2.8500  22:36  2.8547  22:42  2.8592  22:48  2.8637
TS24  22:54  2.8682  23:00  2.8726  23:06  2.8769  23:12  2.8812  23:18  2.8854  23:24  2.8896
TS24  23:30  2.8937  23:36  2.8978  23:42  2.9018  23:48  2.9057  23:54  2.9096  24:00  2.9134

 
[OPTIONS]
WET_STEP  0:06:00
DRY_STEP  0:06:00
START_DATE  06/01/2006
END_DATE    06/03/2006
