[OPTIONS]
FLOW_UNITS  CFS
INFILTRATION  GREEN_AMPT
FLOW_ROUTING  KINWAVE
REPORT_STEP  0:15:00
WET_STEP  0:05:00
DRY_STEP  1:00:00
ROUTING_STEP  60
START_TIME  0:00:00
END_TIME  23:59:59
START_DATE  01/01/1987
END_DATE  12/31/2006

[EVAPORATION]
MONTHLY  0.1  0.15  0.2  0.26  0.28  0.29  0.29  0.25  0.2  0.17  0.13  0.12  
DRY_ONLY  YES

[RAINGAGES]
RainGage2  INTENSITY  1:00  1.0  TIMESERIES  TS1

[SUBCATCHMENTS]
Subcatch1  RainGage1  Outfall1  10.00  70.0  2904.0  5  0
Subcatch2  RainGage2  Outfall1  0  100  0  0  0
Subcatch3  RainGage2  Outfall1  0  100  0  0  0
Subcatch4  RainGage2  Outfall1  0  100  0  0  0

[SUBAREAS]
Subcatch1  0.01  0.33  0.05  0.27  0  OUTLET
Subcatch2  0  0  0  0  0  OUTLET
Subcatch3  0  0  0  0  0  OUTLET
Subcatch4  0  0  0  0  0  OUTLET

[INFILTRATION]
Subcatch1  2.4  1.104  0.38
Subcatch2  2.4  1.104  0.38
Subcatch3  2.4  1.104  0.38
Subcatch4  2.4  1.104  0.38

[LID_CONTROLS]
RainGarden  BC
RainGarden  SURFACE  6  0  0  0  0
RainGarden  SOIL  12  0.450  0.1  0.05  10  10  1.6
RainGarden  STORAGE  0  0  1.1040  0
 
GreenRoof  BC
GreenRoof  SURFACE  0  0  0  0  0
GreenRoof  SOIL  4  0.450  0.1  0.05  10  10  1.6
GreenRoof  STORAGE  3  0.75  0  0
GreenRoof  DRAIN  10  0.5  0  0
 
StreetPlanter  BC
StreetPlanter  SURFACE  6  0  0  0  0
StreetPlanter  SOIL  18  0.450  0.1  0.05  10  10  1.6
StreetPlanter  STORAGE  12 0.750  1.1040  0
 
PorousPavement  PP
PorousPavement  SURFACE  0.05  0  0.01  3  0
PorousPavement  PAVEMENT  6 0.120  0  400  0
PorousPavement  STORAGE  18  0.750  1.1040  0
 

[LID_USAGE]
 

[OUTFALLS]
Outfall1  0.0  FREE

[JUNCTIONS]
Cisterns  0

[TIMESERIES]
TS1  0  0

[REPORT]
SUBCATCHMENTS  NONE
NODES ALL
LINKS NONE

 
[RAINGAGES]
RainGage1  CUMULATIVE  0:06  1.0  TIMESERIES  TS24
 
[TIMESERIES]
TS24  00:06  0.0098  00:12  0.0195  00:18  0.0293  00:24  0.0391  00:30  0.0488  00:36  0.0586
TS24  00:42  0.0683  00:48  0.0781  00:54  0.0879  01:00  0.0976  01:06  0.1074  01:12  0.1172
TS24  01:18  0.1269  01:24  0.1367  01:30  0.1465  01:36  0.1562  01:42  0.1660  01:48  0.1757
TS24  01:54  0.1855  02:00  0.1953  02:06  0.2051  02:12  0.2151  02:18  0.2253  02:24  0.2355
TS24  02:30  0.2459  02:36  0.2565  02:42  0.2672  02:48  0.2781  02:54  0.2891  03:00  0.3002
TS24  03:06  0.3116  03:12  0.3230  03:18  0.3346  03:24  0.3463  03:30  0.3582  03:36  0.3702
TS24  03:42  0.3824  03:48  0.3947  03:54  0.4072  04:00  0.4198  04:06  0.4326  04:12  0.4455
TS24  04:18  0.4586  04:24  0.4718  04:30  0.4852  04:36  0.4986  04:42  0.5123  04:48  0.5261
TS24  04:54  0.5400  05:00  0.5541  05:06  0.5683  05:12  0.5827  05:18  0.5973  05:24  0.6119
TS24  05:30  0.6267  05:36  0.6417  05:42  0.6568  05:48  0.6720  05:54  0.6875  06:00  0.7030
TS24  06:06  0.7189  06:12  0.7352  06:18  0.7521  06:24  0.7694  06:30  0.7873  06:36  0.8055
TS24  06:42  0.8244  06:48  0.8436  06:54  0.8634  07:00  0.8836  07:06  0.9044  07:12  0.9256
TS24  07:18  0.9474  07:24  0.9695  07:30  0.9923  07:36  1.0154  07:42  1.0392  07:48  1.0633
TS24  07:54  1.0880  08:00  1.1131  08:06  1.1390  08:12  1.1661  08:18  1.1943  08:24  1.2236
TS24  08:30  1.2541  08:36  1.2856  08:42  1.3183  08:48  1.3521  08:54  1.3870  09:00  1.4231
TS24  09:06  1.4603  09:12  1.4985  09:18  1.5380  09:24  1.5785  09:30  1.6202  09:36  1.6630
TS24  09:42  1.7069  09:48  1.7519  09:54  1.7981  10:00  1.8454  10:06  1.8944  10:12  1.9457
TS24  10:18  1.9994  10:24  2.0555  10:30  2.1139  10:36  2.1746  10:42  2.2377  10:48  2.3031
TS24  10:54  2.3708  11:00  2.4409  11:06  2.5167  11:12  2.6015  11:18  2.6952  11:24  2.7979
TS24  11:30  2.9096  11:36  3.0688  11:42  3.3138  11:48  3.6448  11:54  4.0617  12:00  4.8819
TS24  12:06  5.7020  12:12  6.1190  12:18  6.4500  12:24  6.6950  12:30  6.8542  12:36  6.9659
TS24  12:42  7.0686  12:48  7.1623  12:54  7.2471  13:00  7.3228  13:06  7.3929  13:12  7.4607
TS24  13:18  7.5261  13:24  7.5892  13:30  7.6499  13:36  7.7083  13:42  7.7644  13:48  7.8181
TS24  13:54  7.8694  14:00  7.9184  14:06  7.9657  14:12  8.0119  14:18  8.0569  14:24  8.1008
TS24  14:30  8.1436  14:36  8.1853  14:42  8.2258  14:48  8.2652  14:54  8.3035  15:00  8.3407
TS24  15:06  8.3767  15:12  8.4117  15:18  8.4455  15:24  8.4782  15:30  8.5097  15:36  8.5402
TS24  15:42  8.5695  15:48  8.5977  15:54  8.6247  16:00  8.6507  16:06  8.6759  16:12  8.7005
TS24  16:18  8.7247  16:24  8.7483  16:30  8.7716  16:36  8.7942  16:42  8.8165  16:48  8.8382
TS24  16:54  8.8595  17:00  8.8802  17:06  8.9005  17:12  8.9202  17:18  8.9395  17:24  8.9583
TS24  17:30  8.9766  17:36  8.9944  17:42  9.0118  17:48  9.0286  17:54  9.0450  18:00  9.0608
TS24  18:06  9.0763  18:12  9.0917  18:18  9.1070  18:24  9.1221  18:30  9.1370  18:36  9.1519
TS24  18:42  9.1665  18:48  9.1811  18:54  9.1954  19:00  9.2097  19:06  9.2237  19:12  9.2377
TS24  19:18  9.2515  19:24  9.2651  19:30  9.2786  19:36  9.2920  19:42  9.3052  19:48  9.3183
TS24  19:54  9.3311  20:00  9.3439  20:06  9.3565  20:12  9.3691  20:18  9.3815  20:24  9.3938
TS24  20:30  9.4060  20:36  9.4181  20:42  9.4301  20:48  9.4420  20:54  9.4537  21:00  9.4654
TS24  21:06  9.4769  21:12  9.4883  21:18  9.4997  21:24  9.5109  21:30  9.5219  21:36  9.5330
TS24  21:42  9.5438  21:48  9.5546  21:54  9.5653  22:00  9.5758  22:06  9.5863  22:12  9.5966
TS24  22:18  9.6068  22:24  9.6169  22:30  9.6269  22:36  9.6369  22:42  9.6466  22:48  9.6563
TS24  22:54  9.6658  23:00  9.6753  23:06  9.6846  23:12  9.6939  23:18  9.7030  23:24  9.7120

 
[OPTIONS]
WET_STEP  0:06:00
DRY_STEP  0:06:00
START_DATE  06/01/2006
END_DATE    06/03/2006
