[OPTIONS]
FLOW_UNITS  CFS
INFILTRATION  GREEN_AMPT
FLOW_ROUTING  KINWAVE
REPORT_STEP  0:15:00
WET_STEP  0:05:00
DRY_STEP  1:00:00
ROUTING_STEP  60
START_TIME  0:00:00
END_TIME  23:59:59
START_DATE  01/01/1987
END_DATE  12/31/2006

[EVAPORATION]
MONTHLY  0.1  0.15  0.2  0.26  0.28  0.29  0.29  0.25  0.2  0.17  0.13  0.12  
DRY_ONLY  YES

[RAINGAGES]
RainGage2  INTENSITY  1:00  1.0  TIMESERIES  TS1

[SUBCATCHMENTS]
Subcatch1  RainGage1  Outfall1  10.00  70.0  2904.0  5  0
Subcatch2  RainGage2  Outfall1  0  100  0  0  0
Subcatch3  RainGage2  Outfall1  0  100  0  0  0
Subcatch4  RainGage2  Outfall1  0  100  0  0  0

[SUBAREAS]
Subcatch1  0.01  0.33  0.05  0.27  0  OUTLET
Subcatch2  0  0  0  0  0  OUTLET
Subcatch3  0  0  0  0  0  OUTLET
Subcatch4  0  0  0  0  0  OUTLET

[INFILTRATION]
Subcatch1  2.4  1.104  0.38
Subcatch2  2.4  1.104  0.38
Subcatch3  2.4  1.104  0.38
Subcatch4  2.4  1.104  0.38

[LID_CONTROLS]
RainGarden  BC
RainGarden  SURFACE  6  0  0  0  0
RainGarden  SOIL  12  0.450  0.1  0.05  10  10  1.6
RainGarden  STORAGE  0  0  1.1040  0
 
GreenRoof  BC
GreenRoof  SURFACE  0  0  0  0  0
GreenRoof  SOIL  4  0.450  0.1  0.05  10  10  1.6
GreenRoof  STORAGE  3  0.75  0  0
GreenRoof  DRAIN  10  0.5  0  0
 
StreetPlanter  BC
StreetPlanter  SURFACE  6  0  0  0  0
StreetPlanter  SOIL  18  0.450  0.1  0.05  10  10  1.6
StreetPlanter  STORAGE  12 0.750  1.1040  0
 
PorousPavement  PP
PorousPavement  SURFACE  0.05  0  0.01  3  0
PorousPavement  PAVEMENT  6 0.120  0  400  0
PorousPavement  STORAGE  18  0.750  1.1040  0
 

[LID_USAGE]
 

[OUTFALLS]
Outfall1  0.0  FREE

[JUNCTIONS]
Cisterns  0

[TIMESERIES]
TS1  0  0

[REPORT]
SUBCATCHMENTS  NONE
NODES ALL
LINKS NONE

 
[RAINGAGES]
RainGage1  CUMULATIVE  0:06  1.0  TIMESERIES  TS24
 
[TIMESERIES]
TS24  00:06  0.0087  00:12  0.0174  00:18  0.0261  00:24  0.0348  00:30  0.0435  00:36  0.0522
TS24  00:42  0.0609  00:48  0.0696  00:54  0.0783  01:00  0.0870  01:06  0.0957  01:12  0.1044
TS24  01:18  0.1131  01:24  0.1218  01:30  0.1305  01:36  0.1392  01:42  0.1479  01:48  0.1566
TS24  01:54  0.1653  02:00  0.1740  02:06  0.1828  02:12  0.1917  02:18  0.2007  02:24  0.2099
TS24  02:30  0.2192  02:36  0.2286  02:42  0.2381  02:48  0.2478  02:54  0.2576  03:00  0.2675
TS24  03:06  0.2776  03:12  0.2878  03:18  0.2982  03:24  0.3086  03:30  0.3192  03:36  0.3299
TS24  03:42  0.3408  03:48  0.3518  03:54  0.3629  04:00  0.3741  04:06  0.3855  04:12  0.3970
TS24  04:18  0.4087  04:24  0.4204  04:30  0.4323  04:36  0.4443  04:42  0.4565  04:48  0.4688
TS24  04:54  0.4812  05:00  0.4938  05:06  0.5065  05:12  0.5193  05:18  0.5322  05:24  0.5453
TS24  05:30  0.5585  05:36  0.5718  05:42  0.5853  05:48  0.5989  05:54  0.6126  06:00  0.6265
TS24  06:06  0.6406  06:12  0.6552  06:18  0.6702  06:24  0.6856  06:30  0.7015  06:36  0.7178
TS24  06:42  0.7346  06:48  0.7517  06:54  0.7694  07:00  0.7874  07:06  0.8060  07:12  0.8248
TS24  07:18  0.8442  07:24  0.8640  07:30  0.8843  07:36  0.9049  07:42  0.9260  07:48  0.9475
TS24  07:54  0.9695  08:00  0.9919  08:06  1.0150  08:12  1.0391  08:18  1.0643  08:24  1.0904
TS24  08:30  1.1175  08:36  1.1456  08:42  1.1748  08:48  1.2049  08:54  1.2360  09:00  1.2681
TS24  09:06  1.3013  09:12  1.3354  09:18  1.3705  09:24  1.4067  09:30  1.4438  09:36  1.4819
TS24  09:42  1.5211  09:48  1.5612  09:54  1.6023  10:00  1.6444  10:06  1.6881  10:12  1.7339
TS24  10:18  1.7817  10:24  1.8317  10:30  1.8837  10:36  1.9378  10:42  1.9940  10:48  2.0523
TS24  10:54  2.1127  11:00  2.1752  11:06  2.2427  11:12  2.3182  11:18  2.4018  11:24  2.4933
TS24  11:30  2.5928  11:36  2.7347  11:42  2.9530  11:48  3.2480  11:54  3.6195  12:00  4.3504
TS24  12:06  5.0813  12:12  5.4528  12:18  5.7477  12:24  5.9661  12:30  6.1080  12:36  6.2075
TS24  12:42  6.2990  12:48  6.3825  12:54  6.4581  13:00  6.5256  13:06  6.5881  13:12  6.6484
TS24  13:18  6.7067  13:24  6.7629  13:30  6.8171  13:36  6.8691  13:42  6.9190  13:48  6.9669
TS24  13:54  7.0127  14:00  7.0563  14:06  7.0985  14:12  7.1396  14:18  7.1797  14:24  7.2189
TS24  14:30  7.2570  14:36  7.2941  14:42  7.3302  14:48  7.3654  14:54  7.3995  15:00  7.4326
TS24  15:06  7.4648  15:12  7.4959  15:18  7.5260  15:24  7.5552  15:30  7.5833  15:36  7.6104
TS24  15:42  7.6365  15:48  7.6617  15:54  7.6858  16:00  7.7089  16:06  7.7313  16:12  7.7533
TS24  16:18  7.7748  16:24  7.7959  16:30  7.8166  16:36  7.8368  16:42  7.8566  16:48  7.8760
TS24  16:54  7.8949  17:00  7.9134  17:06  7.9315  17:12  7.9490  17:18  7.9663  17:24  7.9830
TS24  17:30  7.9993  17:36  8.0152  17:42  8.0307  17:48  8.0456  17:54  8.0602  18:00  8.0743
TS24  18:06  8.0882  18:12  8.1019  18:18  8.1155  18:24  8.1290  18:30  8.1423  18:36  8.1555
TS24  18:42  8.1686  18:48  8.1815  18:54  8.1943  19:00  8.2070  19:06  8.2195  19:12  8.2320
TS24  19:18  8.2443  19:24  8.2564  19:30  8.2684  19:36  8.2804  19:42  8.2921  19:48  8.3038
TS24  19:54  8.3153  20:00  8.3267  20:06  8.3379  20:12  8.3491  20:18  8.3602  20:24  8.3711
TS24  20:30  8.3820  20:36  8.3928  20:42  8.4034  20:48  8.4140  20:54  8.4245  21:00  8.4349
TS24  21:06  8.4452  21:12  8.4553  21:18  8.4654  21:24  8.4754  21:30  8.4853  21:36  8.4951
TS24  21:42  8.5048  21:48  8.5144  21:54  8.5239  22:00  8.5333  22:06  8.5426  22:12  8.5518
TS24  22:18  8.5609  22:24  8.5699  22:30  8.5788  22:36  8.5877  22:42  8.5964  22:48  8.6050
TS24  22:54  8.6135  23:00  8.6220  23:06  8.6302  23:12  8.6385  23:18  8.6466  23:24  8.6547
TS24  23:30  8.6626  23:36  8.6704  23:42  8.6782  23:48  8.6858  23:54  8.6933  24:00  8.7008

 
[OPTIONS]
WET_STEP  0:06:00
DRY_STEP  0:06:00
START_DATE  06/01/2006
END_DATE    06/03/2006
