[OPTIONS]
FLOW_UNITS  CFS
INFILTRATION  GREEN_AMPT
FLOW_ROUTING  KINWAVE
REPORT_STEP  0:15:00
WET_STEP  0:05:00
DRY_STEP  1:00:00
ROUTING_STEP  60
START_TIME  0:00:00
END_TIME  23:59:59
START_DATE  01/01/1987
END_DATE  12/31/2006

[EVAPORATION]
MONTHLY  0.14  0.17  0.21  0.24  0.26  0.28  0.28  0.28  0.25  0.19  0.16  0.13  
DRY_ONLY  YES

[RAINGAGES]
RainGage2  INTENSITY  1:00  1.0  TIMESERIES  TS1

[SUBCATCHMENTS]
Subcatch1  RainGage1  Outfall1  10.00  80.0  2904.0  5  0
Subcatch2  RainGage2  Outfall1  0  100  0  0  0
Subcatch3  RainGage2  Outfall1  0  100  0  0  0
Subcatch4  RainGage2  Outfall1  0  100  0  0  0

[SUBAREAS]
Subcatch1  0.01  0.25  0.05  0.25  0  OUTLET
Subcatch2  0  0  0  0  0  OUTLET
Subcatch3  0  0  0  0  0  OUTLET
Subcatch4  0  0  0  0  0  OUTLET

[INFILTRATION]
Subcatch1  8.7  0.04  0.15
Subcatch2  8.7  0.04  0.15
Subcatch3  8.7  0.04  0.15
Subcatch4  8.7  0.04  0.15

[LID_CONTROLS]
RainGarden  BC
RainGarden  SURFACE  6  0  0  0  0
RainGarden  SOIL  12  0.450  0.1  0.05  10  10  1.6
RainGarden  STORAGE  0  0  0.0400  0
 
GreenRoof  BC
GreenRoof  SURFACE  0  0  0  0  0
GreenRoof  SOIL  4  0.450  0.1  0.05  10  10  1.6
GreenRoof  STORAGE  3  0.75  0  0
GreenRoof  DRAIN  10  0.5  0  0
 
StreetPlanter  BC
StreetPlanter  SURFACE  6  0  0  0  0
StreetPlanter  SOIL  18  0.450  0.1  0.05  10  10  1.6
StreetPlanter  STORAGE  12 0.750  0.0400  0
 
PorousPavement  PP
PorousPavement  SURFACE  0.05  0  0.01  3  0
PorousPavement  PAVEMENT  6 0.120  0  400  0
PorousPavement  STORAGE  18  0.750  0.0400  0
 

[LID_USAGE]
 

[OUTFALLS]
Outfall1  0.0  FREE

[JUNCTIONS]
Cisterns  0

[TIMESERIES]
TS1  0  0

[REPORT]
SUBCATCHMENTS  NONE
NODES ALL
LINKS NONE

 
[RAINGAGES]
RainGage1  CUMULATIVE  0:06  1.0  TIMESERIES  TS24
 
[TIMESERIES]
TS24  00:06  0.0071  00:12  0.0142  00:18  0.0214  00:24  0.0285  00:30  0.0357  00:36  0.0428
TS24  00:42  0.0500  00:48  0.0571  00:54  0.0643  01:00  0.0714  01:06  0.0786  01:12  0.0858
TS24  01:18  0.0929  01:24  0.1002  01:30  0.1073  01:36  0.1145  01:42  0.1217  01:48  0.1289
TS24  01:54  0.1361  02:00  0.1433  02:06  0.1506  02:12  0.1580  02:18  0.1655  02:24  0.1731
TS24  02:30  0.1808  02:36  0.1887  02:42  0.1967  02:48  0.2048  02:54  0.2130  03:00  0.2213
TS24  03:06  0.2297  03:12  0.2383  03:18  0.2470  03:24  0.2558  03:30  0.2647  03:36  0.2738
TS24  03:42  0.2830  03:48  0.2923  03:54  0.3016  04:00  0.3112  04:06  0.3208  04:12  0.3304
TS24  04:18  0.3401  04:24  0.3499  04:30  0.3597  04:36  0.3695  04:42  0.3794  04:48  0.3893
TS24  04:54  0.3993  05:00  0.4092  05:06  0.4193  05:12  0.4294  05:18  0.4395  05:24  0.4497
TS24  05:30  0.4600  05:36  0.4703  05:42  0.4806  05:48  0.4909  05:54  0.5014  06:00  0.5118
TS24  06:06  0.5225  06:12  0.5337  06:18  0.5453  06:24  0.5573  06:30  0.5697  06:36  0.5826
TS24  06:42  0.5960  06:48  0.6098  06:54  0.6240  07:00  0.6387  07:06  0.6537  07:12  0.6688
TS24  07:18  0.6840  07:24  0.6994  07:30  0.7149  07:36  0.7305  07:42  0.7463  07:48  0.7621
TS24  07:54  0.7782  08:00  0.7943  08:06  0.8114  08:12  0.8302  08:18  0.8506  08:24  0.8728
TS24  08:30  0.8967  08:36  0.9222  08:42  0.9493  08:48  0.9780  08:54  1.0082  09:00  1.0400
TS24  09:06  1.0741  09:12  1.1112  09:18  1.1513  09:24  1.1945  09:30  1.2406  09:36  1.3079
TS24  09:42  1.4143  09:48  1.5880  09:54  1.8964  10:00  2.1087  10:06  2.1791  10:12  2.2421
TS24  10:18  2.2978  10:24  2.3461  10:30  2.3871  10:36  2.4234  10:42  2.4580  10:48  2.4908
TS24  10:54  2.5217  11:00  2.5509  11:06  2.5788  11:12  2.6061  11:18  2.6327  11:24  2.6586
TS24  11:30  2.6839  11:36  2.7086  11:42  2.7326  11:48  2.7559  11:54  2.7786  12:00  2.8006
TS24  12:06  2.8221  12:12  2.8432  12:18  2.8639  12:24  2.8842  12:30  2.9040  12:36  2.9235
TS24  12:42  2.9425  12:48  2.9611  12:54  2.9794  13:00  2.9972  13:06  3.0146  13:12  3.0316
TS24  13:18  3.0481  13:24  3.0643  13:30  3.0801  13:36  3.0954  13:42  3.1104  13:48  3.1249
TS24  13:54  3.1390  14:00  3.1528  14:06  3.1662  14:12  3.1796  14:18  3.1929  14:24  3.2061
TS24  14:30  3.2193  14:36  3.2324  14:42  3.2453  14:48  3.2582  14:54  3.2710  15:00  3.2838
TS24  15:06  3.2964  15:12  3.3090  15:18  3.3215  15:24  3.3339  15:30  3.3462  15:36  3.3585
TS24  15:42  3.3706  15:48  3.3827  15:54  3.3947  16:00  3.4066  16:06  3.4184  16:12  3.4302
TS24  16:18  3.4419  16:24  3.4535  16:30  3.4650  16:36  3.4764  16:42  3.4877  16:48  3.4990
TS24  16:54  3.5102  17:00  3.5213  17:06  3.5323  17:12  3.5432  17:18  3.5541  17:24  3.5648
TS24  17:30  3.5755  17:36  3.5861  17:42  3.5966  17:48  3.6071  17:54  3.6174  18:00  3.6277
TS24  18:06  3.6379  18:12  3.6480  18:18  3.6581  18:24  3.6680  18:30  3.6779  18:36  3.6877
TS24  18:42  3.6974  18:48  3.7070  18:54  3.7165  19:00  3.7260  19:06  3.7354  19:12  3.7447
TS24  19:18  3.7539  19:24  3.7630  19:30  3.7720  19:36  3.7810  19:42  3.7899  19:48  3.7987
TS24  19:54  3.8074  20:00  3.8161  20:06  3.8246  20:12  3.8331  20:18  3.8415  20:24  3.8498
TS24  20:30  3.8580  20:36  3.8662  20:42  3.8742  20:48  3.8822  20:54  3.8901  21:00  3.8980
TS24  21:06  3.9057  21:12  3.9133  21:18  3.9209  21:24  3.9284  21:30  3.9358  21:36  3.9432
TS24  21:42  3.9504  21:48  3.9576  21:54  3.9647  22:00  3.9717  22:06  3.9786  22:12  3.9854
TS24  22:18  3.9922  22:24  3.9988  22:30  4.0054  22:36  4.0119  22:42  4.0184  22:48  4.0247
TS24  22:54  4.0310  23:00  4.0372  23:06  4.0433  23:12  4.0493  23:18  4.0552  23:24  4.0611
TS24  23:30  4.0669  23:36  4.0725  23:42  4.0782  23:48  4.0837  23:54  4.0891  24:00  4.0945

 
[OPTIONS]
WET_STEP  0:06:00
DRY_STEP  0:06:00
START_DATE  06/01/2006
END_DATE    06/03/2006
