[OPTIONS]
FLOW_UNITS  CFS
INFILTRATION  GREEN_AMPT
FLOW_ROUTING  KINWAVE
REPORT_STEP  0:15:00
WET_STEP  0:05:00
DRY_STEP  1:00:00
ROUTING_STEP  60
START_TIME  0:00:00
END_TIME  23:59:59
START_DATE  01/01/1987
END_DATE  12/31/2006

[EVAPORATION]
MONTHLY  0.146  0.17  0.215  0.244  0.273  0.294  0.291  0.285  0.256  0.198  0.164  0.134  
DRY_ONLY  YES

[RAINGAGES]
RainGage2  INTENSITY  1:00  1.0  TIMESERIES  TS1

[SUBCATCHMENTS]
Subcatch1  RainGage1  Outfall1  10.00  80.0  2904.0  5  0
Subcatch2  RainGage2  Outfall1  0  100  0  0  0
Subcatch3  RainGage2  Outfall1  0  100  0  0  0
Subcatch4  RainGage2  Outfall1  0  100  0  0  0

[SUBAREAS]
Subcatch1  0.01  0.25  0.05  0.25  0  OUTLET
Subcatch2  0  0  0  0  0  OUTLET
Subcatch3  0  0  0  0  0  OUTLET
Subcatch4  0  0  0  0  0  OUTLET

[INFILTRATION]
Subcatch1  8.7  0.04  0.15
Subcatch2  8.7  0.04  0.15
Subcatch3  8.7  0.04  0.15
Subcatch4  8.7  0.04  0.15

[LID_CONTROLS]
RainGarden  BC
RainGarden  SURFACE  6  0  0  0  0
RainGarden  SOIL  12  0.450  0.1  0.05  10  10  1.6
RainGarden  STORAGE  0  0  0.0400  0
 
GreenRoof  BC
GreenRoof  SURFACE  0  0  0  0  0
GreenRoof  SOIL  4  0.450  0.1  0.05  10  10  1.6
GreenRoof  STORAGE  3  0.75  0  0
GreenRoof  DRAIN  10  0.5  0  0
 
StreetPlanter  BC
StreetPlanter  SURFACE  6  0  0  0  0
StreetPlanter  SOIL  18  0.450  0.1  0.05  10  10  1.6
StreetPlanter  STORAGE  12 0.750  0.0400  0
 
PorousPavement  PP
PorousPavement  SURFACE  0.05  0  0.01  3  0
PorousPavement  PAVEMENT  6 0.120  0  400  0
PorousPavement  STORAGE  18  0.750  0.0400  0
 

[LID_USAGE]
 

[OUTFALLS]
Outfall1  0.0  FREE

[JUNCTIONS]
Cisterns  0

[TIMESERIES]
TS1  0  0

[REPORT]
SUBCATCHMENTS  NONE
NODES ALL
LINKS NONE

 
[RAINGAGES]
RainGage1  CUMULATIVE  0:06  1.0  TIMESERIES  TS24
 
[TIMESERIES]
TS24  00:06  0.0078  00:12  0.0156  00:18  0.0234  00:24  0.0312  00:30  0.0390  00:36  0.0468
TS24  00:42  0.0546  00:48  0.0624  00:54  0.0703  01:00  0.0781  01:06  0.0859  01:12  0.0938
TS24  01:18  0.1016  01:24  0.1095  01:30  0.1173  01:36  0.1252  01:42  0.1330  01:48  0.1409
TS24  01:54  0.1488  02:00  0.1567  02:06  0.1646  02:12  0.1727  02:18  0.1809  02:24  0.1892
TS24  02:30  0.1977  02:36  0.2063  02:42  0.2150  02:48  0.2238  02:54  0.2328  03:00  0.2419
TS24  03:06  0.2511  03:12  0.2605  03:18  0.2700  03:24  0.2797  03:30  0.2894  03:36  0.2993
TS24  03:42  0.3093  03:48  0.3195  03:54  0.3297  04:00  0.3402  04:06  0.3507  04:12  0.3612
TS24  04:18  0.3718  04:24  0.3825  04:30  0.3932  04:36  0.4039  04:42  0.4147  04:48  0.4255
TS24  04:54  0.4365  05:00  0.4474  05:06  0.4584  05:12  0.4694  05:18  0.4805  05:24  0.4916
TS24  05:30  0.5028  05:36  0.5141  05:42  0.5253  05:48  0.5367  05:54  0.5481  06:00  0.5595
TS24  06:06  0.5712  06:12  0.5834  06:18  0.5961  06:24  0.6092  06:30  0.6228  06:36  0.6369
TS24  06:42  0.6516  06:48  0.6667  06:54  0.6822  07:00  0.6983  07:06  0.7146  07:12  0.7311
TS24  07:18  0.7478  07:24  0.7646  07:30  0.7815  07:36  0.7986  07:42  0.8158  07:48  0.8332
TS24  07:54  0.8507  08:00  0.8683  08:06  0.8870  08:12  0.9075  08:18  0.9299  08:24  0.9541
TS24  08:30  0.9802  08:36  1.0081  08:42  1.0378  08:48  1.0691  08:54  1.1021  09:00  1.1369
TS24  09:06  1.1742  09:12  1.2147  09:18  1.2586  09:24  1.3058  09:30  1.3562  09:36  1.4297
TS24  09:42  1.5461  09:48  1.7360  09:54  2.0731  10:00  2.3051  10:06  2.3821  10:12  2.4510
TS24  10:18  2.5119  10:24  2.5647  10:30  2.6095  10:36  2.6492  10:42  2.6870  10:48  2.7228
TS24  10:54  2.7567  11:00  2.7885  11:06  2.8191  11:12  2.8489  11:18  2.8780  11:24  2.9063
TS24  11:30  2.9340  11:36  2.9610  11:42  2.9872  11:48  3.0127  11:54  3.0375  12:00  3.0616
TS24  12:06  3.0851  12:12  3.1081  12:18  3.1307  12:24  3.1529  12:30  3.1746  12:36  3.1959
TS24  12:42  3.2167  12:48  3.2370  12:54  3.2569  13:00  3.2764  13:06  3.2954  13:12  3.3140
TS24  13:18  3.3321  13:24  3.3498  13:30  3.3671  13:36  3.3838  13:42  3.4002  13:48  3.4161
TS24  13:54  3.4315  14:00  3.4465  14:06  3.4612  14:12  3.4759  14:18  3.4904  14:24  3.5049
TS24  14:30  3.5192  14:36  3.5335  14:42  3.5477  14:48  3.5618  14:54  3.5758  15:00  3.5897
TS24  15:06  3.6036  15:12  3.6173  15:18  3.6310  15:24  3.6445  15:30  3.6580  15:36  3.6714
TS24  15:42  3.6847  15:48  3.6979  15:54  3.7110  16:00  3.7240  16:06  3.7370  16:12  3.7498
TS24  16:18  3.7626  16:24  3.7752  16:30  3.7878  16:36  3.8003  16:42  3.8127  16:48  3.8250
TS24  16:54  3.8372  17:00  3.8493  17:06  3.8614  17:12  3.8733  17:18  3.8852  17:24  3.8970
TS24  17:30  3.9087  17:36  3.9202  17:42  3.9317  17:48  3.9432  17:54  3.9545  18:00  3.9657
TS24  18:06  3.9769  18:12  3.9879  18:18  3.9989  18:24  4.0098  18:30  4.0206  18:36  4.0313
TS24  18:42  4.0419  18:48  4.0524  18:54  4.0628  19:00  4.0731  19:06  4.0834  19:12  4.0936
TS24  19:18  4.1036  19:24  4.1136  19:30  4.1235  19:36  4.1333  19:42  4.1430  19:48  4.1526
TS24  19:54  4.1622  20:00  4.1716  20:06  4.1810  20:12  4.1902  20:18  4.1994  20:24  4.2085
TS24  20:30  4.2175  20:36  4.2264  20:42  4.2352  20:48  4.2439  20:54  4.2526  21:00  4.2611
TS24  21:06  4.2696  21:12  4.2780  21:18  4.2862  21:24  4.2944  21:30  4.3025  21:36  4.3106
TS24  21:42  4.3185  21:48  4.3263  21:54  4.3341  22:00  4.3417  22:06  4.3493  22:12  4.3567
TS24  22:18  4.3641  22:24  4.3714  22:30  4.3786  22:36  4.3857  22:42  4.3928  22:48  4.3997
TS24  22:54  4.4066  23:00  4.4133  23:06  4.4200  23:12  4.4266  23:18  4.4331  23:24  4.4395
TS24  23:30  4.4458  23:36  4.4520  23:42  4.4581  23:48  4.4642  23:54  4.4701  24:00  4.4760

 
[OPTIONS]
WET_STEP  0:06:00
DRY_STEP  0:06:00
START_DATE  06/01/2006
END_DATE    06/03/2006
