[OPTIONS]
FLOW_UNITS  CFS
INFILTRATION  GREEN_AMPT
FLOW_ROUTING  KINWAVE
REPORT_STEP  0:15:00
WET_STEP  0:05:00
DRY_STEP  1:00:00
ROUTING_STEP  60
START_TIME  0:00:00
END_TIME  23:59:59
START_DATE  01/01/1987
END_DATE  12/31/2006

[EVAPORATION]
MONTHLY  0.05  0.06  0.12  0.15  0.21  0.24  0.31  0.27  0.19  0.09  0.04  0.03  
DRY_ONLY  YES

[RAINGAGES]
RainGage2  INTENSITY  1:00  1.0  TIMESERIES  TS1

[SUBCATCHMENTS]
Subcatch1  RainGage1  Outfall1  10.00  90.0  2904.0  2  0
Subcatch2  RainGage2  Outfall1  0  100  0  0  0
Subcatch3  RainGage2  Outfall1  0  100  0  0  0
Subcatch4  RainGage2  Outfall1  0  100  0  0  0

[SUBAREAS]
Subcatch1  0.01  0.30  0.05  0.20  0  OUTLET
Subcatch2  0  0  0  0  0  OUTLET
Subcatch3  0  0  0  0  0  OUTLET
Subcatch4  0  0  0  0  0  OUTLET

[INFILTRATION]
Subcatch1  8.7  0.108  0.15
Subcatch2  8.7  0.108  0.15
Subcatch3  8.7  0.108  0.15
Subcatch4  8.7  0.108  0.15

[LID_CONTROLS]
RainGarden  BC
RainGarden  SURFACE  6  0  0  0  0
RainGarden  SOIL  12  0.450  0.1  0.05  10  10  1.6
RainGarden  STORAGE  0  0  0.1080  0
 
GreenRoof  BC
GreenRoof  SURFACE  0  0  0  0  0
GreenRoof  SOIL  4  0.450  0.1  0.05  10  10  1.6
GreenRoof  STORAGE  3  0.75  0  0
GreenRoof  DRAIN  10  0.5  0  0
 
StreetPlanter  BC
StreetPlanter  SURFACE  6  0  0  0  0
StreetPlanter  SOIL  18  0.450  0.1  0.05  10  10  1.6
StreetPlanter  STORAGE  12 0.750  0.1080  0
 
PorousPavement  PP
PorousPavement  SURFACE  0.05  0  0.01  3  0
PorousPavement  PAVEMENT  6 0.120  0  400  0
PorousPavement  STORAGE  18  0.750  0.1080  0
 

[LID_USAGE]
 

[OUTFALLS]
Outfall1  0.0  FREE

[JUNCTIONS]
Cisterns  0

[TIMESERIES]
TS1  0  0

[REPORT]
SUBCATCHMENTS  NONE
NODES ALL
LINKS NONE

 
[RAINGAGES]
RainGage1  CUMULATIVE  0:06  1.0  TIMESERIES  TS24
 
[TIMESERIES]
TS24  00:06  0.0045  00:12  0.0089  00:18  0.0134  00:24  0.0178  00:30  0.0223  00:36  0.0268
TS24  00:42  0.0312  00:48  0.0357  00:54  0.0402  01:00  0.0447  01:06  0.0491  01:12  0.0536
TS24  01:18  0.0581  01:24  0.0626  01:30  0.0671  01:36  0.0716  01:42  0.0761  01:48  0.0806
TS24  01:54  0.0851  02:00  0.0896  02:06  0.0941  02:12  0.0987  02:18  0.1034  02:24  0.1082
TS24  02:30  0.1130  02:36  0.1179  02:42  0.1229  02:48  0.1280  02:54  0.1331  03:00  0.1383
TS24  03:06  0.1436  03:12  0.1490  03:18  0.1544  03:24  0.1599  03:30  0.1655  03:36  0.1711
TS24  03:42  0.1769  03:48  0.1827  03:54  0.1885  04:00  0.1945  04:06  0.2005  04:12  0.2065
TS24  04:18  0.2126  04:24  0.2187  04:30  0.2248  04:36  0.2309  04:42  0.2371  04:48  0.2433
TS24  04:54  0.2495  05:00  0.2558  05:06  0.2621  05:12  0.2684  05:18  0.2747  05:24  0.2811
TS24  05:30  0.2875  05:36  0.2939  05:42  0.3004  05:48  0.3068  05:54  0.3134  06:00  0.3199
TS24  06:06  0.3266  06:12  0.3335  06:18  0.3408  06:24  0.3483  06:30  0.3561  06:36  0.3642
TS24  06:42  0.3725  06:48  0.3811  06:54  0.3900  07:00  0.3992  07:06  0.4086  07:12  0.4180
TS24  07:18  0.4275  07:24  0.4371  07:30  0.4468  07:36  0.4566  07:42  0.4664  07:48  0.4763
TS24  07:54  0.4864  08:00  0.4965  08:06  0.5071  08:12  0.5188  08:18  0.5316  08:24  0.5455
TS24  08:30  0.5604  08:36  0.5764  08:42  0.5933  08:48  0.6112  08:54  0.6301  09:00  0.6500
TS24  09:06  0.6713  09:12  0.6945  09:18  0.7196  09:24  0.7466  09:30  0.7754  09:36  0.8174
TS24  09:42  0.8839  09:48  0.9925  09:54  1.1853  10:00  1.3179  10:06  1.3619  10:12  1.4013
TS24  10:18  1.4361  10:24  1.4663  10:30  1.4919  10:36  1.5147  10:42  1.5363  10:48  1.5567
TS24  10:54  1.5761  11:00  1.5943  11:06  1.6117  11:12  1.6288  11:18  1.6454  11:24  1.6616
TS24  11:30  1.6775  11:36  1.6929  11:42  1.7079  11:48  1.7224  11:54  1.7366  12:00  1.7504
TS24  12:06  1.7638  12:12  1.7770  12:18  1.7899  12:24  1.8026  12:30  1.8150  12:36  1.8272
TS24  12:42  1.8391  12:48  1.8507  12:54  1.8621  13:00  1.8732  13:06  1.8841  13:12  1.8947
TS24  13:18  1.9051  13:24  1.9152  13:30  1.9250  13:36  1.9346  13:42  1.9440  13:48  1.9531
TS24  13:54  1.9619  14:00  1.9705  14:06  1.9789  14:12  1.9873  14:18  1.9956  14:24  2.0038
TS24  14:30  2.0121  14:36  2.0202  14:42  2.0283  14:48  2.0364  14:54  2.0444  15:00  2.0524
TS24  15:06  2.0603  15:12  2.0681  15:18  2.0759  15:24  2.0837  15:30  2.0914  15:36  2.0990
TS24  15:42  2.1066  15:48  2.1142  15:54  2.1217  16:00  2.1291  16:06  2.1365  16:12  2.1439
TS24  16:18  2.1512  16:24  2.1584  16:30  2.1656  16:36  2.1727  16:42  2.1798  16:48  2.1869
TS24  16:54  2.1939  17:00  2.2008  17:06  2.2077  17:12  2.2145  17:18  2.2213  17:24  2.2280
TS24  17:30  2.2347  17:36  2.2413  17:42  2.2479  17:48  2.2544  17:54  2.2609  18:00  2.2673
TS24  18:06  2.2737  18:12  2.2800  18:18  2.2863  18:24  2.2925  18:30  2.2987  18:36  2.3048
TS24  18:42  2.3109  18:48  2.3169  18:54  2.3228  19:00  2.3287  19:06  2.3346  19:12  2.3404
TS24  19:18  2.3462  19:24  2.3519  19:30  2.3575  19:36  2.3631  19:42  2.3687  19:48  2.3742
TS24  19:54  2.3796  20:00  2.3850  20:06  2.3904  20:12  2.3957  20:18  2.4009  20:24  2.4061
TS24  20:30  2.4113  20:36  2.4164  20:42  2.4214  20:48  2.4264  20:54  2.4313  21:00  2.4362
TS24  21:06  2.4411  21:12  2.4458  21:18  2.4506  21:24  2.4553  21:30  2.4599  21:36  2.4645
TS24  21:42  2.4690  21:48  2.4735  21:54  2.4779  22:00  2.4823  22:06  2.4866  22:12  2.4909
TS24  22:18  2.4951  22:24  2.4993  22:30  2.5034  22:36  2.5075  22:42  2.5115  22:48  2.5154
TS24  22:54  2.5194  23:00  2.5232  23:06  2.5270  23:12  2.5308  23:18  2.5345  23:24  2.5382
TS24  23:30  2.5418  23:36  2.5453  23:42  2.5488  23:48  2.5523  23:54  2.5557  24:00  2.5591

 
[OPTIONS]
WET_STEP  0:06:00
DRY_STEP  0:06:00
START_DATE  06/01/2006
END_DATE    06/03/2006
