[TITLE]
;;Project Title/Notes
Test of named variables and
math expressions in control
rules.

[OPTIONS]
;;Option            	Value
FLOW_UNITS          	CFS
INFILTRATION        	HORTON
FLOW_ROUTING        	STEADY
LINK_OFFSETS        	DEPTH
MIN_SLOPE           	0
ALLOW_PONDING       	NO
SKIP_STEADY_STATE   	NO

START_DATE          	01/16/2021
START_TIME          	00:00:00
REPORT_START_DATE   	01/16/2021
REPORT_START_TIME   	00:00:00
END_DATE            	01/16/2021
END_TIME            	03:00:00
SWEEP_START         	01/01
SWEEP_END           	12/31
DRY_DAYS            	0
REPORT_STEP         	00:05:00
WET_STEP            	00:05:00
DRY_STEP            	01:00:00
ROUTING_STEP        	0:00:30 
RULE_STEP           	00:05:00

INERTIAL_DAMPING    	PARTIAL
NORMAL_FLOW_LIMITED 	BOTH
FORCE_MAIN_EQUATION 	H-W
VARIABLE_STEP       	0.00
LENGTHENING_STEP    	0
MIN_SURFAREA        	12.566
MAX_TRIALS          	8
HEAD_TOLERANCE      	0.005
SYS_FLOW_TOL        	5
LAT_FLOW_TOL        	5
MINIMUM_STEP        	0.5
THREADS             	1

[EVAPORATION]
;;Data Source   	Parameters
;;--------------	----------------
CONSTANT        	0.0
DRY_ONLY        	NO

[JUNCTIONS]
;;Name          	Elevation 	MaxDepth  	InitDepth 	SurDepth  	Aponded   
;;--------------	----------	----------	----------	----------	----------
1               	2         	0         	0         	0         	0         
2               	1         	0         	0         	0         	0         

[OUTFALLS]
;;Name          	Elevation 	Type      	Stage Data      	Gated   	Route To        
;;--------------	----------	----------	----------------	--------	----------------
4               	0         	FREE      	                	NO      	                

[STORAGE]
;;Name          	Elev.   	MaxDepth  	InitDepth 	Shape     	Curve Type/Params           	SurDepth 	Fevap   	Psi     	Ksat    	IMD     
;;--------------	--------	----------	-----------	----------	----------------------------	---------	--------	        	--------	--------
3               	0       	5         	0         	FUNCTIONAL	0         	0         	10000   	0        	0       

[CONDUITS]
;;Name          	From Node       	To Node         	Length    	Roughness 	InOffset  	OutOffset 	InitFlow  	MaxFlow   
;;--------------	----------------	----------------	----------	----------	----------	----------	----------	----------
1               	1               	3               	400       	0.01      	0         	0         	0         	0         
2               	2               	3               	400       	0.01      	0         	0         	0         	0         

[ORIFICES]
;;Name          	From Node       	To Node         	Type        	Offset    	Qcoeff    	Gated   	CloseTime 
;;--------------	----------------	----------------	------------	----------	----------	--------	----------
3               	3               	4               	SIDE        	0         	0.65      	NO      	0         

[XSECTIONS]
;;Link          	Shape       	Geom1           	Geom2     	Geom3     	Geom4     	Barrels   	Culvert   
;;--------------	------------	----------------	----------	----------	----------	----------	----------
1               	CIRCULAR    	2               	0         	0         	0         	1         	          
2               	CIRCULAR    	2               	0         	0         	0         	1         	          
3               	CIRCULAR    	1               	0         	0         	0

[CONTROLS]
variable  Q1 = LINK 1 FLOW
variable  Q2 = LINK 2 FLOW
variable  Q3 = LINK 3 FLOW
expression Net_Inflow = (Q1 + Q2)/2 - Q3

rule 1
if Net_Inflow > 0.1
then ORIFICE 3 Setting = 1
else ORIFICE 3 Setting = 0.5


[INFLOWS]
;;Node          	Constituent     	Time Series     	Type    	Mfactor 	Sfactor 	Baseline	Pattern
;;--------------	----------------	----------------	--------	--------	--------	--------	--------
1               	FLOW            	1               	FLOW    	1.0     	1.0     	        
2               	FLOW            	1               	FLOW    	1.0     	0.5     	        

[TIMESERIES]
;;Name          	Date      	Time      	Value     
;;--------------	----------	----------	----------
1               	          	0         	0         
1               	          	3         	1         
1               	          	6         	0         

[REPORT]
;;Reporting Options
CONTROLS  	YES
SUBCATCHMENTS	ALL
NODES	ALL
LINKS	ALL

[TAGS]

[MAP]
DIMENSIONS	0.000	0.000	10000.000	10000.000
Units     	None

[COORDINATES]
;;Node          	X-Coord           	Y-Coord           
;;--------------	------------------	------------------
1               	2537.190          	7652.893          
2               	2669.421          	5206.612          
4               	7132.231          	6446.281          
3               	4966.942          	6413.223          

[VERTICES]
;;Link          	X-Coord           	Y-Coord           
;;--------------	------------------	------------------

[LABELS]
;;X-Coord         	Y-Coord           	Label           
3839.418          	7461.634          	"Link 1"	""	"Arial"	10	0	0
3670.788          	5548.686          	"Link 2"	""	"Arial"	10	0	0
5788.253          	6151.468          	"Link 3"	""	"Arial"	10	0	0

