[TITLE]
;;Project Title/Notes
Parkway project with inlets
represented as Outlet links
connected to catch basin
storage units.

[OPTIONS]
;;Option             Value
FLOW_UNITS           CMS
INFILTRATION         HORTON
FLOW_ROUTING         DYNWAVE
LINK_OFFSETS         ELEVATION
MIN_SLOPE            0
ALLOW_PONDING        YES
SKIP_STEADY_STATE    NO

START_DATE           01/01/2016
START_TIME           00:00:00
REPORT_START_DATE    01/01/2016
REPORT_START_TIME    00:00:00
END_DATE             01/01/2016
END_TIME             06:00:00
SWEEP_START          01/01
SWEEP_END            12/31
DRY_DAYS             0
REPORT_STEP          00:01:00
WET_STEP             00:01:00
DRY_STEP             00:01:00
ROUTING_STEP         0:00:01 
RULE_STEP            00:00:00

INERTIAL_DAMPING     PARTIAL
NORMAL_FLOW_LIMITED  FROUDE
FORCE_MAIN_EQUATION  H-W
VARIABLE_STEP        0.75
LENGTHENING_STEP     2.0
MIN_SURFAREA         12.566
MAX_TRIALS           8
HEAD_TOLERANCE       0.0001
SYS_FLOW_TOL         5
LAT_FLOW_TOL         5
MINIMUM_STEP         0.5
THREADS              4

[EVAPORATION]
;;Data Source    Parameters
;;-------------- ----------------
CONSTANT         0.0
DRY_ONLY         NO

[RAINGAGES]
;;Name           Format    Interval SCF      Source    
;;-------------- --------- ------ ------ ----------
RainGauge_1      INTENSITY 0:10     1.0      TIMESERIES CoS-100-Year    

[SUBCATCHMENTS]
;;Name           Rain Gage        Outlet           Area     %Imperv  Width    %Slope   CurbLen  SnowPack        
;;-------------- ---------------- ---------------- -------- -------- -------- -------- -------- ----------------
S-D3751-1        RainGauge_1      S-R3750-1        0.118    5        15.8     20       0                        
S-D3751-2        RainGauge_1      S-R3851B-1       0.047    5        59.1     20       0                        
S-D3751A-1       RainGauge_1      S-R3851C-1       0.048    5        59.6     20       0                        
S-D3752-1        RainGauge_1      S-R3852C-1       0.047    5        58.5     20       0                        
S-D3752A-1       RainGauge_1      S-R3852D-1       0.047    5        59.1     20       0                        
S-D3850-1        RainGauge_1      S-R3850-1        0.072    5        89.8     20       0                        
S-D3850A-1       RainGauge_1      S-R3850B-1       0.043    5        53.4     20       0                        
S-D3851-1        RainGauge_1      S-R3851-1        0.043    5        53.4     20       0                        
S-D3851A-1       RainGauge_1      S-R3852-1        0.042    5        52.9     20       0                        
S-D3851B-1       RainGauge_1      S-R3851A-1       0.043    5        53.9     20       0                        
S-D3852-1        RainGauge_1      S-R3852A-1       0.043    5        53.4     20       0                        
S-D3852A-1       RainGauge_1      S-R3852B-1       0.043    5        53.9     20       0                        
S-D3853-1        RainGauge_1      S-R3853-1        0.042    5        52.9     20       0                        
S-D3853A-1       RainGauge_1      S-R3852E-1       0.048    5        59.6     20       0                        
S-D3853B-1       RainGauge_1      S-R3853B-1       0.047    5        58.5     20       0                        
S-D3853C-1       RainGauge_1      S-R3853C-1       0.04     5        49.8     20       0                        
S-D3854A-1       RainGauge_1      S-R3854-1        0.055    5        68.9     20       0                        
S-D3953-1        RainGauge_1      S-R3853A-1       0.036    5        45       20       0                        
S-D3954-1        RainGauge_1      S-R3953-1        0.0504   5        62.796   20       0                        
S-D3954A-1       RainGauge_1      S-R3954C-1       0.042    5        52.9     20       0                        
S-D3954B-1       RainGauge_1      S-R3954G-1       0.047    5        58.5     20       0                        
S-D3955-1        RainGauge_1      S-R3955A-1       0.054    5        67.7     20       0                        
S-D3955A-1       RainGauge_1      S-R4055B-1       0.057    5        70.6     20       0                        
S-D4054-1        RainGauge_1      S-R3955-1        0.0489   5        61.179   20       0                        
S-D4055-1        RainGauge_1      S-R4055-1        0.051    5        63.7     20       0                        
S-D4055A-1       RainGauge_1      S-R4055A-1       0.045    5        56       20       0                        
S-D4055B-1       RainGauge_1      S-R4156-1        0.025    5        10.3     20       0                        
S-D4055B-2       RainGauge_1      S-R4056-1        0.045    5        56.8     20       0                        
S-D4056-1        RainGauge_1      S-R4055C-1       0.045    5        56.8     20       0                        
S-D4056A-1       RainGauge_1      S-R4056B-1       0.045    5        56.8     20       0                        
S-D4056B-1       RainGauge_1      S-R4156D-1       0.0253   5        32.18    20       0                        
S-D4156A-2       RainGauge_1      S-R4156C-1       0.0335   5        10.755   20       0                        
S-D4157A-1       RainGauge_1      S-R4157F-1       0.046    5        58       20       0                        
S-D4157B-2       RainGauge_1      S-R4156G-1       0.037    5        12.463   20       0                        
S-D4257-1        RainGauge_1      S-R4257-1        0.046    5        57.9     20       0                        
S-D4257A-1       RainGauge_1      S-R4257A-1       0.045    5        56.3     20       0                        
S-D4257B-1       RainGauge_1      S-R4257B-1       0.045    5        56.3     20       0                        
S-D4257C-1       RainGauge_1      S-R4257C-1       0.045    5        56.3     20       0                        
S-D4258-1        RainGauge_1      S-R4258-1        0.045    5        56.6     20       0                        
S-D4258A-1       RainGauge_1      S-R4258A-1       0.052    5        65.5     20       0                        
S-D4358-1        RainGauge_1      S-R4358-1        0.052    5        65.4     20       0                        
S-D4358C-1       RainGauge_1      S-R4358A-1       0.047    5        59.2     20       0                        
S-D4358D-1       RainGauge_1      S-R4358C-1       0.047    5        59.2     20       0                        
S-D4359D-1       RainGauge_1      S-R4359E-1       0.055    5        69.3     20       0                        
S-D4459A-1       RainGauge_1      S-R4459C-1       0.045    5        56.3     20       0                        
S-D4459B-1       RainGauge_1      S-R4460-1        0.045    5        56.6     20       0                        
S-D4459C-1       RainGauge_1      S-R4459G-1       0.045    5        56.3     20       0                        
S-D4459D-1       RainGauge_1      S-R4359B-1       0.055    5        69.3     20       0                        
S-D4460-1        RainGauge_1      S-R4460A-1       0.045    5        56.3     20       0                        
S-D4460A-1       RainGauge_1      S-R4460B-1       0.045    5        56.3     20       0                        
S-D4560-1        RainGauge_1      S-R4560-1        0.045    5        90       20       0                        
S-D4560A-1       RainGauge_1      S-R4560A-1       0.055    5        69.4     20       0                        
S-D4560B-1       RainGauge_1      S-R4560B-1       0.027    5        33.6     20       0                        
S-D4560D-1       RainGauge_1      S-R4560C-1       0.055    5        69.4     20       0                        
S-D4561-1        RainGauge_1      S-R4560D-1       0.028    5        35.5     20       0                        
S-D4561C-1       RainGauge_1      S-R4661E-1       0.036    5        11.9     20       0                        
S-D4661A-1       RainGauge_1      S-R4661A-1       0.038    5        12.8     20       0                        
S-D4661D-1       RainGauge_1      S-R4662-1        0.046    5        57.8     20       0                        
S-D4662A-1       RainGauge_1      S-R4662B-1       0.046    5        57.8     20       0                        
S-D4662B-1       RainGauge_1      S-R4662C-1       0.045    5        56.3     20       0                        
S-D4762-1        RainGauge_1      S-R4762-1        0.045    5        56.2     20       0                        
S-D4762A-1       RainGauge_1      S-R4762A-1       0.045    5        56.2     20       0                        
S-D4762B-1       RainGauge_1      S-R4762B-1       0.045    5        56.3     20       0                        
S-D4762C-1       RainGauge_1      S-R4762C-1       0.045    5        56.6     20       0                        
S-D4763-1        RainGauge_1      S-R4763A-1       0.045    5        56.3     20       0                        
S-D4763A-1       RainGauge_1      S-R4763B-1       0.036    5        45.2     20       0                        
S-D4763D-1       RainGauge_1      S-R4863D-1       0.016    5        20.2     20       0                        
S-D4862-1        RainGauge_1      S-R4763-1        0.036    5        45.2     20       0                        
S-D4863A-1       RainGauge_1      S-R4863-1        0.016    5        20.2     20       0                        
S-R3750-1        RainGauge_1      R3750            0.069    75.2     62.3     2.5      0                        
S-R3750-2        RainGauge_1      R3750            0.0408   83.7     56.667   2.5      0                        
S-R3750B-1       RainGauge_1      R3750B           0.056    75.2     49.1     2.5      0                        
S-R3850-1        RainGauge_1      R3850            0.061    75.7     68.3     2.5      0                        
S-R3850-2        RainGauge_1      R3850            0.038    82.2     53.102   2.5      0                        
S-R3850B-1       RainGauge_1      R3850B           0.049    75.7     54       2.5      0                        
S-R3851-1        RainGauge_1      R3851            0.048    75.7     53.8     2.5      0                        
S-R3851A-1       RainGauge_1      R3851A           0.049    75.7     54.1     2.5      0                        
S-R3851B-1       RainGauge_1      R3851B           0.057    75.2     49.2     2.5      0                        
S-R3851C-1       RainGauge_1      R3851C           0.057    75.2     49.8     2.5      0                        
S-R3852-1        RainGauge_1      R3852            0.051    75.7     56.4     2.5      0                        
S-R3852A-1       RainGauge_1      R3852A           0.052    75.7     57.3     2.5      0                        
S-R3852B-1       RainGauge_1      R3852B           0.052    75.7     57.8     2.5      0                        
S-R3852C-1       RainGauge_1      R3852C           0.053    75.2     46.3     2.5      0                        
S-R3852D-1       RainGauge_1      R3852D           0.053    75.2     53.4     2.5      0                        
S-R3852E-1       RainGauge_1      R3852E           0.054    75.2     53.9     2.5      0                        
S-R3853-1        RainGauge_1      R3853            0.051    75.7     56.8     2.5      0                        
S-R3853A-1       RainGauge_1      R3853A           0.043    75.7     45.5     2.5      0                        
S-R3853B-1       RainGauge_1      R3853B           0.053    75.2     52.9     2.5      0                        
S-R3853C-1       RainGauge_1      R3853C           0.045    75.2     45       2.5      0                        
S-R3854-1        RainGauge_1      R3854            0.033    75.2     33.4     2.5      0                        
S-R3953-1        RainGauge_1      R3953            0.032    75.7     34       2.5      0                        
S-R3954A-1       RainGauge_1      R3954A           0.014    75.7     13.9     2.5      0                        
S-R3954B-1       RainGauge_1      R3954B           0.014    75.7     12.7     2.5      0                        
S-R3954C-1       RainGauge_1      R3954C           0.051    75.7     51.1     2.5      0                        
S-R3954E-1       RainGauge_1      R3954E           0.014    75.2     14.4     2.5      0                        
S-R3954F-1       RainGauge_1      R3954F           0.014    75.2     14.4     2.5      0                        
S-R3954G-1       RainGauge_1      R3954G           0.053    75.2     55.7     2.5      0                        
S-R3955-1        RainGauge_1      R3955            0.0619   75.7     49.221   2.5      0                        
S-R3955A-1       RainGauge_1      R3955A           0.06     75.2     63       2.5      0                        
S-R4055-1        RainGauge_1      R4055            0.0742   78       52.733   2.5      0                        
S-R4055A-1       RainGauge_1      R4055A           0.066    80       45.5     2.5      0                        
S-R4055B-1       RainGauge_1      R4055B           0.06     75.2     63.2     2.5      0                        
S-R4055C-1       RainGauge_1      R4055C           0.05     75.2     49.7     2.5      0                        
S-R4056-1        RainGauge_1      R4056            0.067    80       44.8     2.5      0                        
S-R4056A-1       RainGauge_1      R4056A           0.031    81.9     18       2.5      0                        
S-R4056B-1       RainGauge_1      R4056B           0.05     75.2     50.1     2.5      0                        
S-R4056C-1       RainGauge_1      R4056C           0.024    76.5     20.9     2.5      0                        
S-R4156-1        RainGauge_1      R4156            0.0429   91.8     18.955   2.5      0                        
S-R4156C-1       RainGauge_1      R4156C           0.0453   75.9     38.504   2.5      0                        
S-R4156D-1       RainGauge_1      R4156D           0.0359   89.4     18.948   2.5      0                        
S-R4156G-1       RainGauge_1      R4156G           0.0588   81.6     33.252   2.5      0                        
S-R4157-1        RainGauge_1      R4157            0.015    73.9     16.4     2.5      0                        
S-R4157B-1       RainGauge_1      R4157B           0.011    73.9     12       2.5      0                        
S-R4157C-1       RainGauge_1      R4157C           0.019    80.4     13.6     2.5      0                        
S-R4157E-1       RainGauge_1      R4157E           0.015    80.4     9.9      2.5      0                        
S-R4157F-1       RainGauge_1      R4157F           0.034    80.4     23       2.5      0                        
S-R4257-1        RainGauge_1      R4257            0.026    73.9     28.8     2.5      0                        
S-R4257A-1       RainGauge_1      R4257A           0.05     73.9     54.4     2.5      0                        
S-R4257B-1       RainGauge_1      R4257B           0.05     74.4     55       2.5      0                        
S-R4257C-1       RainGauge_1      R4257C           0.066    80.4     45.7     2.5      0                        
S-R4258-1        RainGauge_1      R4258            0.06     78.5     47.6     2.5      0                        
S-R4258A-1       RainGauge_1      R4258A           0.062    75.6     60.1     2.5      0                        
S-R4358-1        RainGauge_1      R4358            0.061    74.4     59.2     2.5      0                        
S-R4358A-1       RainGauge_1      R4358A           0.037    74.4     35.9     2.5      0                        
S-R4358B-1       RainGauge_1      R4358B           0.031    79.4     27.3     2.5      0                        
S-R4358C-1       RainGauge_1      R4358C           0.037    75.6     36.2     2.5      0                        
S-R4358D-1       RainGauge_1      R4358D           0.031    79.4     27.4     2.5      0                        
S-R4359A-1       RainGauge_1      R4359A           0.03     79.4     25.2     2.5      0                        
S-R4359B-1       RainGauge_1      R4359B           0.045    75.6     45.3     2.5      0                        
S-R4359D-1       RainGauge_1      R4359D           0.03     79.4     26.1     2.5      0                        
S-R4359E-1       RainGauge_1      R4359E           0.045    75.3     43.5     2.5      0                        
S-R4459-1        RainGauge_1      R4459            0.017    75.6     17.3     2.5      0                        
S-R4459B-1       RainGauge_1      R4459B           0.018    75.6     17.4     2.5      0                        
S-R4459C-1       RainGauge_1      R4459C           0.018    75.6     17.6     2.5      0                        
S-R4459D-1       RainGauge_1      R4459D           0.017    75.3     16.3     2.5      0                        
S-R4459F-1       RainGauge_1      R4459F           0.017    75.3     17       2.5      0                        
S-R4459G-1       RainGauge_1      R4459G           0.017    75.3     17.1     2.5      0                        
S-R4460-1        RainGauge_1      R4460            0.06     75.6     42.6     2.5      0                        
S-R4460A-1       RainGauge_1      R4460A           0.05     75.3     52.3     2.5      0                        
S-R4460B-1       RainGauge_1      R4460B           0.05     75.3     50.7     2.5      0                        
S-R4560-1        RainGauge_1      R4560            0.066    80.5     43.8     2.5      0                        
S-R4560A-1       RainGauge_1      R4560A           0.082    80.5     54.6     2.5      0                        
S-R4560B-1       RainGauge_1      R4560B           0.0559   84.1     30.545   2.5      0                        
S-R4560C-1       RainGauge_1      R4560C           0.061    75.3     64.2     2.5      0                        
S-R4560D-1       RainGauge_1      R4560D           0.044    78.9     32.5     2.5      0                        
S-R4661A-1       RainGauge_1      R4661A           0.055    78       39.3     2.5      0                        
S-R4661B-1       RainGauge_1      R4661B           0.017    74.4     17.7     2.5      0                        
S-R4661D-1       RainGauge_1      R4661D           0.015    74.4     16.9     2.5      0                        
S-R4661E-1       RainGauge_1      R4661E           0.069    83.4     35.8     2.5      0                        
S-R4661F-1       RainGauge_1      R4661F           0.022    80.4     15       2.5      0                        
S-R4662-1        RainGauge_1      R4662            0.019    74.4     20.8     2.5      0                        
S-R4662A-1       RainGauge_1      R4662A           0.02     80.4     13.7     2.5      0                        
S-R4662B-1       RainGauge_1      R4662B           0.025    80.4     17       2.5      0                        
S-R4662C-1       RainGauge_1      R4662C           0.066    80.4     43.3     2.5      0                        
S-R4762-1        RainGauge_1      R4762            0.05     74.4     55.1     2.5      0                        
S-R4762A-1       RainGauge_1      R4762A           0.05     74.4     48.8     2.5      0                        
S-R4762B-1       RainGauge_1      R4762B           0.052    74.4     47.8     2.5      0                        
S-R4762C-1       RainGauge_1      R4762C           0.06     78.4     40.9     2.5      0                        
S-R4763-1        RainGauge_1      R4763            0.042    74.4     40.2     2.5      0                        
S-R4763A-1       RainGauge_1      R4763A           0.053    75.6     50.5     2.5      0                        
S-R4763B-1       RainGauge_1      R4763B           0.042    75.6     40.2     2.5      0                        
S-R4863-1        RainGauge_1      R4863            0.031    79.1     27       2.5      0                        
S-R4863D-1       RainGauge_1      R4863D           0.031    79.1     24.9     2.5      0                        

[SUBAREAS]
;;Subcatchment   N-Imperv   N-Perv     S-Imperv   S-Perv     PctZero    RouteTo    PctRouted 
;;-------------- ---------- ---------- ---------- ---------- ---------- ---------- ----------
S-D3751-1        0.016      0.25       2          5          25         OUTLET    
S-D3751-2        0.016      0.25       2          5          25         OUTLET    
S-D3751A-1       0.016      0.25       2          5          25         OUTLET    
S-D3752-1        0.016      0.25       2          5          25         OUTLET    
S-D3752A-1       0.016      0.25       2          5          25         OUTLET    
S-D3850-1        0.016      0.25       2          5          25         OUTLET    
S-D3850A-1       0.016      0.25       2          5          25         OUTLET    
S-D3851-1        0.016      0.25       2          5          25         OUTLET    
S-D3851A-1       0.016      0.25       2          5          25         OUTLET    
S-D3851B-1       0.016      0.25       2          5          25         OUTLET    
S-D3852-1        0.016      0.25       2          5          25         OUTLET    
S-D3852A-1       0.016      0.25       2          5          25         OUTLET    
S-D3853-1        0.016      0.25       2          5          25         OUTLET    
S-D3853A-1       0.016      0.25       2          5          25         OUTLET    
S-D3853B-1       0.016      0.25       2          5          25         OUTLET    
S-D3853C-1       0.016      0.25       2          5          25         OUTLET    
S-D3854A-1       0.016      0.25       2          5          25         OUTLET    
S-D3953-1        0.016      0.25       2          5          25         OUTLET    
S-D3954-1        0.016      0.25       2          5          25         OUTLET    
S-D3954A-1       0.016      0.25       2          5          25         OUTLET    
S-D3954B-1       0.016      0.25       2          5          25         OUTLET    
S-D3955-1        0.016      0.25       2          5          25         OUTLET    
S-D3955A-1       0.016      0.25       2          5          25         OUTLET    
S-D4054-1        0.016      0.25       2          5          25         OUTLET    
S-D4055-1        0.016      0.25       2          5          25         OUTLET    
S-D4055A-1       0.016      0.25       2          5          25         OUTLET    
S-D4055B-1       0.016      0.25       2          5          25         OUTLET    
S-D4055B-2       0.016      0.25       2          5          25         OUTLET    
S-D4056-1        0.016      0.25       2          5          25         OUTLET    
S-D4056A-1       0.016      0.25       2          5          25         OUTLET    
S-D4056B-1       0.016      0.25       2          5          25         OUTLET    
S-D4156A-2       0.016      0.25       2          5          25         OUTLET    
S-D4157A-1       0.016      0.25       2          5          25         OUTLET    
S-D4157B-2       0.016      0.25       2          5          25         OUTLET    
S-D4257-1        0.016      0.25       2          5          25         OUTLET    
S-D4257A-1       0.016      0.25       2          5          25         OUTLET    
S-D4257B-1       0.016      0.25       2          5          25         OUTLET    
S-D4257C-1       0.016      0.25       2          5          25         OUTLET    
S-D4258-1        0.016      0.25       2          5          25         OUTLET    
S-D4258A-1       0.016      0.25       2          5          25         OUTLET    
S-D4358-1        0.016      0.25       2          5          25         OUTLET    
S-D4358C-1       0.016      0.25       2          5          25         OUTLET    
S-D4358D-1       0.016      0.25       2          5          25         OUTLET    
S-D4359D-1       0.016      0.25       2          5          25         OUTLET    
S-D4459A-1       0.016      0.25       2          5          25         OUTLET    
S-D4459B-1       0.016      0.25       2          5          25         OUTLET    
S-D4459C-1       0.016      0.25       2          5          25         OUTLET    
S-D4459D-1       0.016      0.25       2          5          25         OUTLET    
S-D4460-1        0.016      0.25       2          5          25         OUTLET    
S-D4460A-1       0.016      0.25       2          5          25         OUTLET    
S-D4560-1        0.016      0.25       2          5          25         OUTLET    
S-D4560A-1       0.016      0.25       2          5          25         OUTLET    
S-D4560B-1       0.016      0.25       2          5          25         OUTLET    
S-D4560D-1       0.016      0.25       2          5          25         OUTLET    
S-D4561-1        0.016      0.25       2          5          25         OUTLET    
S-D4561C-1       0.016      0.25       2          5          25         OUTLET    
S-D4661A-1       0.016      0.25       2          5          25         OUTLET    
S-D4661D-1       0.016      0.25       2          5          25         OUTLET    
S-D4662A-1       0.016      0.25       2          5          25         OUTLET    
S-D4662B-1       0.016      0.25       2          5          25         OUTLET    
S-D4762-1        0.016      0.25       2          5          25         OUTLET    
S-D4762A-1       0.016      0.25       2          5          25         OUTLET    
S-D4762B-1       0.016      0.25       2          5          25         OUTLET    
S-D4762C-1       0.016      0.25       2          5          25         OUTLET    
S-D4763-1        0.016      0.25       2          5          25         OUTLET    
S-D4763A-1       0.016      0.25       2          5          25         OUTLET    
S-D4763D-1       0.016      0.25       2          5          25         OUTLET    
S-D4862-1        0.016      0.25       2          5          25         OUTLET    
S-D4863A-1       0.016      0.25       2          5          25         OUTLET    
S-R3750-1        0.016      0.25       2          5          25         OUTLET    
S-R3750-2        0.016      0.25       2          5          25         OUTLET    
S-R3750B-1       0.016      0.25       2          5          25         OUTLET    
S-R3850-1        0.016      0.25       2          5          25         OUTLET    
S-R3850-2        0.016      0.25       2          5          25         OUTLET    
S-R3850B-1       0.016      0.25       2          5          25         OUTLET    
S-R3851-1        0.016      0.25       2          5          25         OUTLET    
S-R3851A-1       0.016      0.25       2          5          25         OUTLET    
S-R3851B-1       0.016      0.25       2          5          25         OUTLET    
S-R3851C-1       0.016      0.25       2          5          25         OUTLET    
S-R3852-1        0.016      0.25       2          5          25         OUTLET    
S-R3852A-1       0.016      0.25       2          5          25         OUTLET    
S-R3852B-1       0.016      0.25       2          5          25         OUTLET    
S-R3852C-1       0.016      0.25       2          5          25         OUTLET    
S-R3852D-1       0.016      0.25       2          5          25         OUTLET    
S-R3852E-1       0.016      0.25       2          5          25         OUTLET    
S-R3853-1        0.016      0.25       2          5          25         OUTLET    
S-R3853A-1       0.016      0.25       2          5          25         OUTLET    
S-R3853B-1       0.016      0.25       2          5          25         OUTLET    
S-R3853C-1       0.016      0.25       2          5          25         OUTLET    
S-R3854-1        0.016      0.25       2          5          25         OUTLET    
S-R3953-1        0.016      0.25       2          5          25         OUTLET    
S-R3954A-1       0.016      0.25       2          5          25         OUTLET    
S-R3954B-1       0.016      0.25       2          5          25         OUTLET    
S-R3954C-1       0.016      0.25       2          5          25         OUTLET    
S-R3954E-1       0.016      0.25       2          5          25         OUTLET    
S-R3954F-1       0.016      0.25       2          5          25         OUTLET    
S-R3954G-1       0.016      0.25       2          5          25         OUTLET    
S-R3955-1        0.016      0.25       2          5          25         OUTLET    
S-R3955A-1       0.016      0.25       2          5          25         OUTLET    
S-R4055-1        0.016      0.25       2          5          25         OUTLET    
S-R4055A-1       0.016      0.25       2          5          25         OUTLET    
S-R4055B-1       0.016      0.25       2          5          25         OUTLET    
S-R4055C-1       0.016      0.25       2          5          25         OUTLET    
S-R4056-1        0.016      0.25       2          5          25         OUTLET    
S-R4056A-1       0.016      0.25       2          5          25         OUTLET    
S-R4056B-1       0.016      0.25       2          5          25         OUTLET    
S-R4056C-1       0.016      0.25       2          5          25         OUTLET    
S-R4156-1        0.016      0.25       2          5          25         OUTLET    
S-R4156C-1       0.016      0.25       2          5          25         OUTLET    
S-R4156D-1       0.016      0.25       2          5          25         OUTLET    
S-R4156G-1       0.016      0.25       2          5          25         OUTLET    
S-R4157-1        0.016      0.25       2          5          25         OUTLET    
S-R4157B-1       0.016      0.25       2          5          25         OUTLET    
S-R4157C-1       0.016      0.25       2          5          25         OUTLET    
S-R4157E-1       0.016      0.25       2          5          25         OUTLET    
S-R4157F-1       0.016      0.25       2          5          25         OUTLET    
S-R4257-1        0.016      0.25       2          5          25         OUTLET    